6

O	  -0.70219605	  -0.05606026	   0.00994226
H	  -1.02219322	   0.84677578	  -0.01148871
H	   0.25752106	   0.04212150	   0.00521900
O	   1.66555519	   0.03107386	   0.00192112
H	   2.04217678	  -0.40730618	   0.76804550
H	   2.03781951	  -0.44513911	  -0.74348138
6

O	  -0.70219605	  -0.05606026	   0.00994226
H	  -1.02219322	   0.84677578	  -0.01148871
H	   0.25752106	   0.04212150	   0.00521900
O	   1.71583232	   0.03067938	   0.00180336
H	   2.09245392	  -0.40770066	   0.76792774
H	   2.08809664	  -0.44553359	  -0.74359914
6

O	  -0.70219605	  -0.05606026	   0.00994226
H	  -1.02219322	   0.84677578	  -0.01148871
H	   0.25752106	   0.04212150	   0.00521900
O	   1.76610946	   0.03028490	   0.00168560
H	   2.14273105	  -0.40809514	   0.76780998
H	   2.13837378	  -0.44592807	  -0.74371690
6

O	  -0.70219605	  -0.05606026	   0.00994226
H	  -1.02219322	   0.84677578	  -0.01148871
H	   0.25752106	   0.04212150	   0.00521900
O	   1.81638659	   0.02989042	   0.00156785
H	   2.19300819	  -0.40848963	   0.76769223
H	   2.18865091	  -0.44632255	  -0.74383465
6

O	  -0.70219605	  -0.05606026	   0.00994226
H	  -1.02219322	   0.84677578	  -0.01148871
H	   0.25752106	   0.04212150	   0.00521900
O	   1.86666372	   0.02949594	   0.00145009
H	   2.24328532	  -0.40888411	   0.76757447
H	   2.23892804	  -0.44671703	  -0.74395241
6

O	  -0.70219605	  -0.05606026	   0.00994226
H	  -1.02219322	   0.84677578	  -0.01148871
H	   0.25752106	   0.04212150	   0.00521900
O	   1.91694085	   0.02910146	   0.00133233
H	   2.29356245	  -0.40927859	   0.76745671
H	   2.28920517	  -0.44711151	  -0.74407017
6

O	  -0.70219605	  -0.05606026	   0.00994226
H	  -1.02219322	   0.84677578	  -0.01148871
H	   0.25752106	   0.04212150	   0.00521900
O	   1.96721799	   0.02870698	   0.00121457
H	   2.34383959	  -0.40967307	   0.76733895
H	   2.33948231	  -0.44750599	  -0.74418793
6

O	  -0.70219605	  -0.05606026	   0.00994226
H	  -1.02219322	   0.84677578	  -0.01148871
H	   0.25752106	   0.04212150	   0.00521900
O	   2.01749512	   0.02831250	   0.00109682
H	   2.39411672	  -0.41006756	   0.76722120
H	   2.38975944	  -0.44790047	  -0.74430568
6

O	  -0.70219605	  -0.05606026	   0.00994226
H	  -1.02219322	   0.84677578	  -0.01148871
H	   0.25752106	   0.04212150	   0.00521900
O	   2.06777225	   0.02791802	   0.00097906
H	   2.44439386	  -0.41046204	   0.76710344
H	   2.44003657	  -0.44829495	  -0.74442344
6

O	  -0.70219605	  -0.05606026	   0.00994226
H	  -1.02219322	   0.84677578	  -0.01148871
H	   0.25752106	   0.04212150	   0.00521900
O	   2.11804938	   0.02752354	   0.00086130
H	   2.49467099	  -0.41085652	   0.76698568
H	   2.49031370	  -0.44868943	  -0.74454120
6

O	  -0.70219605	  -0.05606026	   0.00994226
H	  -1.02219322	   0.84677578	  -0.01148871
H	   0.25752106	   0.04212150	   0.00521900
O	   2.16832652	   0.02712906	   0.00074354
H	   2.54494813	  -0.41125101	   0.76686793
H	   2.54059084	  -0.44908391	  -0.74465896
6

O	  -0.70219605	  -0.05606026	   0.00994226
H	  -1.02219322	   0.84677578	  -0.01148871
H	   0.25752106	   0.04212150	   0.00521900
O	   2.21860365	   0.02673458	   0.00062579
H	   2.59522527	  -0.41164549	   0.76675017
H	   2.59086797	  -0.44947839	  -0.74477671
6

O	  -0.70219605	  -0.05606026	   0.00994226
H	  -1.02219322	   0.84677578	  -0.01148871
H	   0.25752106	   0.04212150	   0.00521900
O	   2.26888078	   0.02634010	   0.00050803
H	   2.64550240	  -0.41203997	   0.76663241
H	   2.64114510	  -0.44987287	  -0.74489447
6

O	  -0.70219605	  -0.05606026	   0.00994226
H	  -1.02219322	   0.84677578	  -0.01148871
H	   0.25752106	   0.04212150	   0.00521900
O	   2.31915791	   0.02594562	   0.00039027
H	   2.69577954	  -0.41243445	   0.76651465
H	   2.69142223	  -0.45026735	  -0.74501223
6

O	  -0.70219605	  -0.05606026	   0.00994226
H	  -1.02219322	   0.84677578	  -0.01148871
H	   0.25752106	   0.04212150	   0.00521900
O	   2.36943505	   0.02555114	   0.00027251
H	   2.74605667	  -0.41282894	   0.76639690
H	   2.74169937	  -0.45066183	  -0.74512998
6

O	  -0.70219605	  -0.05606026	   0.00994226
H	  -1.02219322	   0.84677578	  -0.01148871
H	   0.25752106	   0.04212150	   0.00521900
O	   2.41971218	   0.02515666	   0.00015476
H	   2.79633381	  -0.41322342	   0.76627914
H	   2.79197650	  -0.45105631	  -0.74524774
6

O	  -0.70219605	  -0.05606026	   0.00994226
H	  -1.02219322	   0.84677578	  -0.01148871
H	   0.25752106	   0.04212150	   0.00521900
O	   2.46998931	   0.02476218	   0.00003700
H	   2.84661094	  -0.41361790	   0.76616138
H	   2.84225363	  -0.45145079	  -0.74536550
6

O	  -0.70219605	  -0.05606026	   0.00994226
H	  -1.02219322	   0.84677578	  -0.01148871
H	   0.25752106	   0.04212150	   0.00521900
O	   2.52026644	   0.02436770	  -0.00008076
H	   2.89688808	  -0.41401238	   0.76604362
H	   2.89253076	  -0.45184527	  -0.74548326
6

O	  -0.70219605	  -0.05606026	   0.00994226
H	  -1.02219322	   0.84677578	  -0.01148871
H	   0.25752106	   0.04212150	   0.00521900
O	   2.57054358	   0.02397322	  -0.00019852
H	   2.94716521	  -0.41440687	   0.76592587
H	   2.94280790	  -0.45223975	  -0.74560101
6

O	  -0.70219605	  -0.05606026	   0.00994226
H	  -1.02219322	   0.84677578	  -0.01148871
H	   0.25752106	   0.04212150	   0.00521900
O	   2.62082071	   0.02357874	  -0.00031627
H	   2.99744235	  -0.41480135	   0.76580811
H	   2.99308503	  -0.45263423	  -0.74571877
6

O	  -0.70219605	  -0.05606026	   0.00994226
H	  -1.02219322	   0.84677578	  -0.01148871
H	   0.25752106	   0.04212150	   0.00521900
O	   2.67109784	   0.02318426	  -0.00043403
H	   3.04771948	  -0.41519583	   0.76569035
H	   3.04336216	  -0.45302871	  -0.74583653
6

O	  -0.70219605	  -0.05606026	   0.00994226
H	  -1.02219322	   0.84677578	  -0.01148871
H	   0.25752106	   0.04212150	   0.00521900
O	   2.72137497	   0.02278978	  -0.00055179
H	   3.09799662	  -0.41559031	   0.76557259
H	   3.09363929	  -0.45342319	  -0.74595429
6

O	  -0.70219605	  -0.05606026	   0.00994226
H	  -1.02219322	   0.84677578	  -0.01148871
H	   0.25752106	   0.04212150	   0.00521900
O	   2.77165211	   0.02239530	  -0.00066955
H	   3.14827375	  -0.41598480	   0.76545484
H	   3.14391643	  -0.45381767	  -0.74607204
6

O	  -0.70219605	  -0.05606026	   0.00994226
H	  -1.02219322	   0.84677578	  -0.01148871
H	   0.25752106	   0.04212150	   0.00521900
O	   2.82192924	   0.02200082	  -0.00078730
H	   3.19855089	  -0.41637928	   0.76533708
H	   3.19419356	  -0.45421215	  -0.74618980
6

O	  -0.70219605	  -0.05606026	   0.00994226
H	  -1.02219322	   0.84677578	  -0.01148871
H	   0.25752106	   0.04212150	   0.00521900
O	   2.87220637	   0.02160634	  -0.00090506
H	   3.24882802	  -0.41677376	   0.76521932
H	   3.24447069	  -0.45460663	  -0.74630756
6

O	  -0.70219605	  -0.05606026	   0.00994226
H	  -1.02219322	   0.84677578	  -0.01148871
H	   0.25752106	   0.04212150	   0.00521900
O	   2.92248350	   0.02121186	  -0.00102282
H	   3.29910516	  -0.41716824	   0.76510156
H	   3.29474782	  -0.45500111	  -0.74642532
6

O	  -0.70219605	  -0.05606026	   0.00994226
H	  -1.02219322	   0.84677578	  -0.01148871
H	   0.25752106	   0.04212150	   0.00521900
O	   2.97276064	   0.02081738	  -0.00114058
H	   3.34938229	  -0.41756273	   0.76498381
H	   3.34502496	  -0.45539559	  -0.74654307
6

O	  -0.70219605	  -0.05606026	   0.00994226
H	  -1.02219322	   0.84677578	  -0.01148871
H	   0.25752106	   0.04212150	   0.00521900
O	   3.02303777	   0.02042290	  -0.00125833
H	   3.39965943	  -0.41795721	   0.76486605
H	   3.39530209	  -0.45579007	  -0.74666083
6

O	  -0.70219605	  -0.05606026	   0.00994226
H	  -1.02219322	   0.84677578	  -0.01148871
H	   0.25752106	   0.04212150	   0.00521900
O	   3.07331490	   0.02002842	  -0.00137609
H	   3.44993656	  -0.41835169	   0.76474829
H	   3.44557922	  -0.45618455	  -0.74677859
6

O	  -0.70219605	  -0.05606026	   0.00994226
H	  -1.02219322	   0.84677578	  -0.01148871
H	   0.25752106	   0.04212150	   0.00521900
O	   3.12359203	   0.01963394	  -0.00149385
H	   3.50021370	  -0.41874617	   0.76463053
H	   3.49585635	  -0.45657903	  -0.74689635
6

O	  -0.70219605	  -0.05606026	   0.00994226
H	  -1.02219322	   0.84677578	  -0.01148871
H	   0.25752106	   0.04212150	   0.00521900
O	   3.17386917	   0.01923946	  -0.00161161
H	   3.55049083	  -0.41914066	   0.76451278
H	   3.54613349	  -0.45697351	  -0.74701410
6

O	  -0.70219605	  -0.05606026	   0.00994226
H	  -1.02219322	   0.84677578	  -0.01148871
H	   0.25752106	   0.04212150	   0.00521900
O	   3.22414630	   0.01884498	  -0.00172936
H	   3.60076797	  -0.41953514	   0.76439502
H	   3.59641062	  -0.45736799	  -0.74713186
6

O	  -0.70219605	  -0.05606026	   0.00994226
H	  -1.02219322	   0.84677578	  -0.01148871
H	   0.25752106	   0.04212150	   0.00521900
O	   3.27442343	   0.01845050	  -0.00184712
H	   3.65104510	  -0.41992962	   0.76427726
H	   3.64668775	  -0.45776247	  -0.74724962
6

O	  -0.70219605	  -0.05606026	   0.00994226
H	  -1.02219322	   0.84677578	  -0.01148871
H	   0.25752106	   0.04212150	   0.00521900
O	   3.32470056	   0.01805602	  -0.00196488
H	   3.70132224	  -0.42032410	   0.76415950
H	   3.69696488	  -0.45815695	  -0.74736738
6

O	  -0.70219605	  -0.05606026	   0.00994226
H	  -1.02219322	   0.84677578	  -0.01148871
H	   0.25752106	   0.04212150	   0.00521900
O	   3.37497770	   0.01766154	  -0.00208264
H	   3.75159937	  -0.42071859	   0.76404175
H	   3.74724202	  -0.45855143	  -0.74748513
6

O	  -0.70219605	  -0.05606026	   0.00994226
H	  -1.02219322	   0.84677578	  -0.01148871
H	   0.25752106	   0.04212150	   0.00521900
O	   3.42525483	   0.01726706	  -0.00220039
H	   3.80187651	  -0.42111307	   0.76392399
H	   3.79751915	  -0.45894591	  -0.74760289
6

O	  -0.70219605	  -0.05606026	   0.00994226
H	  -1.02219322	   0.84677578	  -0.01148871
H	   0.25752106	   0.04212150	   0.00521900
O	   3.47553196	   0.01687258	  -0.00231815
H	   3.85215364	  -0.42150755	   0.76380623
H	   3.84779628	  -0.45934039	  -0.74772065
6

O	  -0.70219605	  -0.05606026	   0.00994226
H	  -1.02219322	   0.84677578	  -0.01148871
H	   0.25752106	   0.04212150	   0.00521900
O	   3.52580909	   0.01647810	  -0.00243591
H	   3.90243078	  -0.42190203	   0.76368847
H	   3.89807341	  -0.45973487	  -0.74783841
6

O	  -0.70219605	  -0.05606026	   0.00994226
H	  -1.02219322	   0.84677578	  -0.01148871
H	   0.25752106	   0.04212150	   0.00521900
O	   3.57608623	   0.01608362	  -0.00255367
H	   3.95270791	  -0.42229652	   0.76357072
H	   3.94835055	  -0.46012935	  -0.74795616
6

O	  -0.70219605	  -0.05606026	   0.00994226
H	  -1.02219322	   0.84677578	  -0.01148871
H	   0.25752106	   0.04212150	   0.00521900
O	   3.62636336	   0.01568914	  -0.00267142
H	   4.00298505	  -0.42269100	   0.76345296
H	   3.99862768	  -0.46052383	  -0.74807392
6

O	  -0.70219605	  -0.05606026	   0.00994226
H	  -1.02219322	   0.84677578	  -0.01148871
H	   0.25752106	   0.04212150	   0.00521900
O	   3.67664049	   0.01529466	  -0.00278918
H	   4.05326218	  -0.42308548	   0.76333520
H	   4.04890481	  -0.46091831	  -0.74819168
6

O	  -0.70219605	  -0.05606026	   0.00994226
H	  -1.02219322	   0.84677578	  -0.01148871
H	   0.25752106	   0.04212150	   0.00521900
O	   3.72691762	   0.01490018	  -0.00290694
H	   4.10353932	  -0.42347996	   0.76321744
H	   4.09918194	  -0.46131279	  -0.74830944
6

O	  -0.70219605	  -0.05606026	   0.00994226
H	  -1.02219322	   0.84677578	  -0.01148871
H	   0.25752106	   0.04212150	   0.00521900
O	   3.77719476	   0.01450570	  -0.00302470
H	   4.15381645	  -0.42387445	   0.76309969
H	   4.14945908	  -0.46170727	  -0.74842719
6

O	  -0.70219605	  -0.05606026	   0.00994226
H	  -1.02219322	   0.84677578	  -0.01148871
H	   0.25752106	   0.04212150	   0.00521900
O	   3.82747189	   0.01411122	  -0.00314245
H	   4.20409359	  -0.42426893	   0.76298193
H	   4.19973621	  -0.46210175	  -0.74854495
6

O	  -0.70219605	  -0.05606026	   0.00994226
H	  -1.02219322	   0.84677578	  -0.01148871
H	   0.25752106	   0.04212150	   0.00521900
O	   3.87774902	   0.01371674	  -0.00326021
H	   4.25437072	  -0.42466341	   0.76286417
H	   4.25001334	  -0.46249623	  -0.74866271
6

O	  -0.70219605	  -0.05606026	   0.00994226
H	  -1.02219322	   0.84677578	  -0.01148871
H	   0.25752106	   0.04212150	   0.00521900
O	   3.92802615	   0.01332226	  -0.00337797
H	   4.30464786	  -0.42505789	   0.76274641
H	   4.30029047	  -0.46289071	  -0.74878047
6

O	  -0.70219605	  -0.05606026	   0.00994226
H	  -1.02219322	   0.84677578	  -0.01148871
H	   0.25752106	   0.04212150	   0.00521900
O	   3.97830329	   0.01292778	  -0.00349573
H	   4.35492499	  -0.42545238	   0.76262866
H	   4.35056761	  -0.46328519	  -0.74889822
6

O	  -0.70219605	  -0.05606026	   0.00994226
H	  -1.02219322	   0.84677578	  -0.01148871
H	   0.25752106	   0.04212150	   0.00521900
O	   4.02858042	   0.01253330	  -0.00361348
H	   4.40520213	  -0.42584686	   0.76251090
H	   4.40084474	  -0.46367967	  -0.74901598
6

O	  -0.70219605	  -0.05606026	   0.00994226
H	  -1.02219322	   0.84677578	  -0.01148871
H	   0.25752106	   0.04212150	   0.00521900
O	   4.07885755	   0.01213882	  -0.00373124
H	   4.45547926	  -0.42624134	   0.76239314
H	   4.45112187	  -0.46407415	  -0.74913374
6

O	  -0.70219605	  -0.05606026	   0.00994226
H	  -1.02219322	   0.84677578	  -0.01148871
H	   0.25752106	   0.04212150	   0.00521900
O	   4.12913468	   0.01174434	  -0.00384900
H	   4.50575640	  -0.42663582	   0.76227538
H	   4.50139900	  -0.46446863	  -0.74925150
6

O	  -0.70219605	  -0.05606026	   0.00994226
H	  -1.02219322	   0.84677578	  -0.01148871
H	   0.25752106	   0.04212150	   0.00521900
O	   4.17941182	   0.01134986	  -0.00396676
H	   4.55603353	  -0.42703031	   0.76215763
H	   4.55167614	  -0.46486311	  -0.74936925
6

O	  -0.70219605	  -0.05606026	   0.00994226
H	  -1.02219322	   0.84677578	  -0.01148871
H	   0.25752106	   0.04212150	   0.00521900
O	   4.22968895	   0.01095538	  -0.00408451
H	   4.60631067	  -0.42742479	   0.76203987
H	   4.60195327	  -0.46525759	  -0.74948701
6

O	  -0.70219605	  -0.05606026	   0.00994226
H	  -1.02219322	   0.84677578	  -0.01148871
H	   0.25752106	   0.04212150	   0.00521900
O	   4.27996608	   0.01056090	  -0.00420227
H	   4.65658780	  -0.42781927	   0.76192211
H	   4.65223040	  -0.46565207	  -0.74960477
6

O	  -0.70219605	  -0.05606026	   0.00994226
H	  -1.02219322	   0.84677578	  -0.01148871
H	   0.25752106	   0.04212150	   0.00521900
O	   4.33024321	   0.01016642	  -0.00432003
H	   4.70686494	  -0.42821375	   0.76180435
H	   4.70250753	  -0.46604655	  -0.74972253
6

O	  -0.70219605	  -0.05606026	   0.00994226
H	  -1.02219322	   0.84677578	  -0.01148871
H	   0.25752106	   0.04212150	   0.00521900
O	   4.38052035	   0.00977194	  -0.00443779
H	   4.75714207	  -0.42860824	   0.76168660
H	   4.75278467	  -0.46644103	  -0.74984028
6

O	  -0.70219605	  -0.05606026	   0.00994226
H	  -1.02219322	   0.84677578	  -0.01148871
H	   0.25752106	   0.04212150	   0.00521900
O	   4.43079748	   0.00937746	  -0.00455554
H	   4.80741921	  -0.42900272	   0.76156884
H	   4.80306180	  -0.46683551	  -0.74995804
6

O	  -0.70219605	  -0.05606026	   0.00994226
H	  -1.02219322	   0.84677578	  -0.01148871
H	   0.25752106	   0.04212150	   0.00521900
O	   4.48107461	   0.00898298	  -0.00467330
H	   4.85769634	  -0.42939720	   0.76145108
H	   4.85333893	  -0.46722999	  -0.75007580
6

O	  -0.70219605	  -0.05606026	   0.00994226
H	  -1.02219322	   0.84677578	  -0.01148871
H	   0.25752106	   0.04212150	   0.00521900
O	   4.53135174	   0.00858850	  -0.00479106
H	   4.90797348	  -0.42979168	   0.76133332
H	   4.90361606	  -0.46762447	  -0.75019356
6

O	  -0.70219605	  -0.05606026	   0.00994226
H	  -1.02219322	   0.84677578	  -0.01148871
H	   0.25752106	   0.04212150	   0.00521900
O	   4.58162888	   0.00819402	  -0.00490882
H	   4.95825061	  -0.43018617	   0.76121557
H	   4.95389320	  -0.46801895	  -0.75031131
6

O	  -0.70219605	  -0.05606026	   0.00994226
H	  -1.02219322	   0.84677578	  -0.01148871
H	   0.25752106	   0.04212150	   0.00521900
O	   4.63190601	   0.00779954	  -0.00502657
H	   5.00852775	  -0.43058065	   0.76109781
H	   5.00417033	  -0.46841343	  -0.75042907
6

O	  -0.70219605	  -0.05606026	   0.00994226
H	  -1.02219322	   0.84677578	  -0.01148871
H	   0.25752106	   0.04212150	   0.00521900
O	   4.68218314	   0.00740506	  -0.00514433
H	   5.05880488	  -0.43097513	   0.76098005
H	   5.05444746	  -0.46880791	  -0.75054683
6

O	  -0.70219605	  -0.05606026	   0.00994226
H	  -1.02219322	   0.84677578	  -0.01148871
H	   0.25752106	   0.04212150	   0.00521900
O	   4.73246027	   0.00701058	  -0.00526209
H	   5.10908202	  -0.43136961	   0.76086229
H	   5.10472459	  -0.46920239	  -0.75066459
6

O	  -0.70219605	  -0.05606026	   0.00994226
H	  -1.02219322	   0.84677578	  -0.01148871
H	   0.25752106	   0.04212150	   0.00521900
O	   4.78273741	   0.00661610	  -0.00537985
H	   5.15935915	  -0.43176410	   0.76074454
H	   5.15500173	  -0.46959687	  -0.75078234
6

O	  -0.70219605	  -0.05606026	   0.00994226
H	  -1.02219322	   0.84677578	  -0.01148871
H	   0.25752106	   0.04212150	   0.00521900
O	   4.83301454	   0.00622162	  -0.00549760
H	   5.20963629	  -0.43215858	   0.76062678
H	   5.20527886	  -0.46999135	  -0.75090010
6

O	  -0.70219605	  -0.05606026	   0.00994226
H	  -1.02219322	   0.84677578	  -0.01148871
H	   0.25752106	   0.04212150	   0.00521900
O	   4.88329167	   0.00582714	  -0.00561536
H	   5.25991342	  -0.43255306	   0.76050902
H	   5.25555599	  -0.47038583	  -0.75101786
6

O	  -0.70219605	  -0.05606026	   0.00994226
H	  -1.02219322	   0.84677578	  -0.01148871
H	   0.25752106	   0.04212150	   0.00521900
O	   4.93356880	   0.00543266	  -0.00573312
H	   5.31019056	  -0.43294754	   0.76039126
H	   5.30583312	  -0.47078031	  -0.75113562
6

O	  -0.70219605	  -0.05606026	   0.00994226
H	  -1.02219322	   0.84677578	  -0.01148871
H	   0.25752106	   0.04212150	   0.00521900
O	   4.98384594	   0.00503818	  -0.00585088
H	   5.36046769	  -0.43334203	   0.76027351
H	   5.35611026	  -0.47117479	  -0.75125337
6

O	  -0.70219605	  -0.05606026	   0.00994226
H	  -1.02219322	   0.84677578	  -0.01148871
H	   0.25752106	   0.04212150	   0.00521900
O	   5.03412307	   0.00464370	  -0.00596863
H	   5.41074483	  -0.43373651	   0.76015575
H	   5.40638739	  -0.47156927	  -0.75137113
6

O	  -0.70219605	  -0.05606026	   0.00994226
H	  -1.02219322	   0.84677578	  -0.01148871
H	   0.25752106	   0.04212150	   0.00521900
O	   5.08440020	   0.00424922	  -0.00608639
H	   5.46102196	  -0.43413099	   0.76003799
H	   5.45666452	  -0.47196375	  -0.75148889
6

O	  -0.70219605	  -0.05606026	   0.00994226
H	  -1.02219322	   0.84677578	  -0.01148871
H	   0.25752106	   0.04212150	   0.00521900
O	   5.13467733	   0.00385474	  -0.00620415
H	   5.51129910	  -0.43452547	   0.75992023
H	   5.50694165	  -0.47235823	  -0.75160665
6

O	  -0.70219605	  -0.05606026	   0.00994226
H	  -1.02219322	   0.84677578	  -0.01148871
H	   0.25752106	   0.04212150	   0.00521900
O	   5.18495447	   0.00346026	  -0.00632191
H	   5.56157623	  -0.43491996	   0.75980248
H	   5.55721879	  -0.47275271	  -0.75172440
6

O	  -0.70219605	  -0.05606026	   0.00994226
H	  -1.02219322	   0.84677578	  -0.01148871
H	   0.25752106	   0.04212150	   0.00521900
O	   5.23523160	   0.00306578	  -0.00643966
H	   5.61185337	  -0.43531444	   0.75968472
H	   5.60749592	  -0.47314719	  -0.75184216
6

O	  -0.70219605	  -0.05606026	   0.00994226
H	  -1.02219322	   0.84677578	  -0.01148871
H	   0.25752106	   0.04212150	   0.00521900
O	   5.28550873	   0.00267130	  -0.00655742
H	   5.66213050	  -0.43570892	   0.75956696
H	   5.65777305	  -0.47354167	  -0.75195992
6

O	  -0.70219605	  -0.05606026	   0.00994226
H	  -1.02219322	   0.84677578	  -0.01148871
H	   0.25752106	   0.04212150	   0.00521900
O	   5.33578586	   0.00227682	  -0.00667518
H	   5.71240764	  -0.43610340	   0.75944920
H	   5.70805018	  -0.47393615	  -0.75207768
6

O	  -0.70219605	  -0.05606026	   0.00994226
H	  -1.02219322	   0.84677578	  -0.01148871
H	   0.25752106	   0.04212150	   0.00521900
O	   5.38606300	   0.00188234	  -0.00679294
H	   5.76268477	  -0.43649789	   0.75933145
H	   5.75832732	  -0.47433063	  -0.75219543
6

O	  -0.70219605	  -0.05606026	   0.00994226
H	  -1.02219322	   0.84677578	  -0.01148871
H	   0.25752106	   0.04212150	   0.00521900
O	   5.43634013	   0.00148786	  -0.00691069
H	   5.81296191	  -0.43689237	   0.75921369
H	   5.80860445	  -0.47472511	  -0.75231319
6

O	  -0.70219605	  -0.05606026	   0.00994226
H	  -1.02219322	   0.84677578	  -0.01148871
H	   0.25752106	   0.04212150	   0.00521900
O	   5.48661726	   0.00109338	  -0.00702845
H	   5.86323904	  -0.43728685	   0.75909593
H	   5.85888158	  -0.47511959	  -0.75243095
6

O	  -0.70219605	  -0.05606026	   0.00994226
H	  -1.02219322	   0.84677578	  -0.01148871
H	   0.25752106	   0.04212150	   0.00521900
O	   5.53689439	   0.00069890	  -0.00714621
H	   5.91351618	  -0.43768133	   0.75897817
H	   5.90915871	  -0.47551407	  -0.75254871
6

O	  -0.70219605	  -0.05606026	   0.00994226
H	  -1.02219322	   0.84677578	  -0.01148871
H	   0.25752106	   0.04212150	   0.00521900
O	   5.58717153	   0.00030442	  -0.00726397
H	   5.96379331	  -0.43807582	   0.75886042
H	   5.95943585	  -0.47590855	  -0.75266646
6

O	  -0.70219605	  -0.05606026	   0.00994226
H	  -1.02219322	   0.84677578	  -0.01148871
H	   0.25752106	   0.04212150	   0.00521900
O	   5.63744866	  -0.00009006	  -0.00738172
H	   6.01407045	  -0.43847030	   0.75874266
H	   6.00971298	  -0.47630303	  -0.75278422
6

O	  -0.70219605	  -0.05606026	   0.00994226
H	  -1.02219322	   0.84677578	  -0.01148871
H	   0.25752106	   0.04212150	   0.00521900
O	   5.68772579	  -0.00048454	  -0.00749948
H	   6.06434758	  -0.43886478	   0.75862490
H	   6.05999011	  -0.47669751	  -0.75290198
6

O	  -0.70219605	  -0.05606026	   0.00994226
H	  -1.02219322	   0.84677578	  -0.01148871
H	   0.25752106	   0.04212150	   0.00521900
O	   5.73800292	  -0.00087902	  -0.00761724
H	   6.11462472	  -0.43925926	   0.75850714
H	   6.11026724	  -0.47709199	  -0.75301974
6

O	  -0.70219605	  -0.05606026	   0.00994226
H	  -1.02219322	   0.84677578	  -0.01148871
H	   0.25752106	   0.04212150	   0.00521900
O	   5.78828006	  -0.00127350	  -0.00773500
H	   6.16490185	  -0.43965375	   0.75838939
H	   6.16054438	  -0.47748647	  -0.75313749
6

O	  -0.70219605	  -0.05606026	   0.00994226
H	  -1.02219322	   0.84677578	  -0.01148871
H	   0.25752106	   0.04212150	   0.00521900
O	   5.83855719	  -0.00166798	  -0.00785275
H	   6.21517899	  -0.44004823	   0.75827163
H	   6.21082151	  -0.47788095	  -0.75325525
6

O	  -0.70219605	  -0.05606026	   0.00994226
H	  -1.02219322	   0.84677578	  -0.01148871
H	   0.25752106	   0.04212150	   0.00521900
O	   5.88883432	  -0.00206246	  -0.00797051
H	   6.26545612	  -0.44044271	   0.75815387
H	   6.26109864	  -0.47827543	  -0.75337301
6

O	  -0.70219605	  -0.05606026	   0.00994226
H	  -1.02219322	   0.84677578	  -0.01148871
H	   0.25752106	   0.04212150	   0.00521900
O	   5.93911145	  -0.00245694	  -0.00808827
H	   6.31573326	  -0.44083719	   0.75803611
H	   6.31137577	  -0.47866991	  -0.75349077
6

O	  -0.70219605	  -0.05606026	   0.00994226
H	  -1.02219322	   0.84677578	  -0.01148871
H	   0.25752106	   0.04212150	   0.00521900
O	   5.98938859	  -0.00285142	  -0.00820603
H	   6.36601039	  -0.44123168	   0.75791836
H	   6.36165291	  -0.47906439	  -0.75360852
6

O	  -0.70219605	  -0.05606026	   0.00994226
H	  -1.02219322	   0.84677578	  -0.01148871
H	   0.25752106	   0.04212150	   0.00521900
O	   6.03966572	  -0.00324590	  -0.00832378
H	   6.41628753	  -0.44162616	   0.75780060
H	   6.41193004	  -0.47945887	  -0.75372628
6

O	  -0.70219605	  -0.05606026	   0.00994226
H	  -1.02219322	   0.84677578	  -0.01148871
H	   0.25752106	   0.04212150	   0.00521900
O	   6.08994285	  -0.00364038	  -0.00844154
H	   6.46656466	  -0.44202064	   0.75768284
H	   6.46220717	  -0.47985335	  -0.75384404
6

O	  -0.70219605	  -0.05606026	   0.00994226
H	  -1.02219322	   0.84677578	  -0.01148871
H	   0.25752106	   0.04212150	   0.00521900
O	   6.14021998	  -0.00403486	  -0.00855930
H	   6.51684180	  -0.44241512	   0.75756508
H	   6.51248430	  -0.48024783	  -0.75396180
6

O	  -0.70219605	  -0.05606026	   0.00994226
H	  -1.02219322	   0.84677578	  -0.01148871
H	   0.25752106	   0.04212150	   0.00521900
O	   6.19049712	  -0.00442934	  -0.00867706
H	   6.56711893	  -0.44280961	   0.75744733
H	   6.56276144	  -0.48064231	  -0.75407955
6

O	  -0.70219605	  -0.05606026	   0.00994226
H	  -1.02219322	   0.84677578	  -0.01148871
H	   0.25752106	   0.04212150	   0.00521900
O	   6.24077425	  -0.00482382	  -0.00879481
H	   6.61739607	  -0.44320409	   0.75732957
H	   6.61303857	  -0.48103679	  -0.75419731
6

O	  -0.70219605	  -0.05606026	   0.00994226
H	  -1.02219322	   0.84677578	  -0.01148871
H	   0.25752106	   0.04212150	   0.00521900
O	   6.29105138	  -0.00521830	  -0.00891257
H	   6.66767320	  -0.44359857	   0.75721181
H	   6.66331570	  -0.48143127	  -0.75431507
6

O	  -0.70219605	  -0.05606026	   0.00994226
H	  -1.02219322	   0.84677578	  -0.01148871
H	   0.25752106	   0.04212150	   0.00521900
O	   6.79382270	  -0.00916310	  -0.01009014
H	   7.17044455	  -0.44754340	   0.75603424
H	   7.16608702	  -0.48537607	  -0.75549264
6

O	  -0.70219605	  -0.05606026	   0.00994226
H	  -1.02219322	   0.84677578	  -0.01148871
H	   0.25752106	   0.04212150	   0.00521900
O	   7.29659403	  -0.01310790	  -0.01126772
H	   7.67321590	  -0.45148822	   0.75485666
H	   7.66885835	  -0.48932087	  -0.75667022
6

O	  -0.70219605	  -0.05606026	   0.00994226
H	  -1.02219322	   0.84677578	  -0.01148871
H	   0.25752106	   0.04212150	   0.00521900
O	   8.30213668	  -0.02099750	  -0.01362287
H	   8.67875860	  -0.45937787	   0.75250151
H	   8.67440100	  -0.49721047	  -0.75902537
6

O	  -0.70219605	  -0.05606026	   0.00994226
H	  -1.02219322	   0.84677578	  -0.01148871
H	   0.25752106	   0.04212150	   0.00521900
O	  10.31322198	  -0.03677670	  -0.01833317
H	  10.68984400	  -0.47515717	   0.74779121
H	  10.68548630	  -0.51298967	  -0.76373567
6

O	  -0.70219605	  -0.05606026	   0.00994226
H	  -1.02219322	   0.84677578	  -0.01148871
H	   0.25752106	   0.04212150	   0.00521900
O	  20.36864848	  -0.11567270	  -0.04188467
H	  20.74527100	  -0.55405367	   0.72423971
H	  20.74091280	  -0.59188567	  -0.78728717
6

O	  -0.70219605	  -0.05606026	   0.00994226
H	  -1.02219322	   0.84677578	  -0.01148871
H	   0.25752106	   0.04212150	   0.00521900
O	 100.81206048	  -0.74684070	  -0.23029667
H	 101.18868700	  -1.18522567	   0.53582771
H	 101.18432480	  -1.22305367	  -0.97569917
6

O	  -0.70219605	  -0.05606026	   0.00994226
H	  -1.02219322	   0.84677578	  -0.01148871
H	   0.25752106	   0.04212150	   0.00521900
O	 201.36632548	  -1.53580070	  -0.46581167
H	 201.74295700	  -1.97419067	   0.30031271
H	 201.73858980	  -2.01201367	  -1.21121417