12

C	   0.82576911	   1.23652484	  -0.04025044
C	   1.30015992	  -0.06294088	   0.12725601
C	   0.40352312	  -1.12855218	   0.19824486
C	  -0.96780949	  -0.89519049	   0.10313994
C	  -1.44350838	   0.40448328	  -0.06244130
C	  -0.54575549	   1.46876875	  -0.13624741
H	   1.52101317	   2.06312520	  -0.08247145
H	   2.36365753	  -0.24226113	   0.20767420
H	   0.77375338	  -2.13742677	   0.32412109
H	  -1.66520900	  -1.71998342	   0.16042745
H	  -2.50751124	   0.58550112	  -0.12415016
H	  -0.91422190	   2.47742220	  -0.26785516