9

O	  -0.52532979	  -0.05097108	  -0.31451686
H	  -0.94200663	   0.74790163	   0.01125282
H	   0.40369652	   0.05978598	  -0.07356837
O	   1.77364813	   0.04955567	   0.03057917
C	   2.23865318	  -0.42207427	  -1.23157994
H	   2.14163093	  -0.52252173	   0.70810747
H	   1.80783608	   0.22901942	  -1.98469400
H	   3.32461686	  -0.37128141	  -1.30589189
H	   1.91031056	  -1.44194374	  -1.43066060
9

O	  -0.52532979	  -0.05097108	  -0.31451686
H	  -0.94200663	   0.74790163	   0.01125282
H	   0.40369652	   0.05978598	  -0.07356837
O	   1.82253936	   0.04919057	   0.03429601
C	   2.28754441	  -0.42243937	  -1.22786310
H	   2.19052216	  -0.52288683	   0.71182432
H	   1.85672731	   0.22865432	  -1.98097715
H	   3.37350809	  -0.37164651	  -1.30217504
H	   1.95920179	  -1.44230884	  -1.42694375
9

O	  -0.52532979	  -0.05097108	  -0.31451686
H	  -0.94200663	   0.74790163	   0.01125282
H	   0.40369652	   0.05978598	  -0.07356837
O	   1.87143059	   0.04882546	   0.03801286
C	   2.33643564	  -0.42280447	  -1.22414625
H	   2.23941340	  -0.52325193	   0.71554117
H	   1.90561854	   0.22828922	  -1.97726031
H	   3.42239932	  -0.37201161	  -1.29845820
H	   2.00809303	  -1.44267395	  -1.42322691
9

O	  -0.52532979	  -0.05097108	  -0.31451686
H	  -0.94200663	   0.74790163	   0.01125282
H	   0.40369652	   0.05978598	  -0.07356837
O	   1.92032182	   0.04846036	   0.04172970
C	   2.38532688	  -0.42316957	  -1.22042941
H	   2.28830463	  -0.52361704	   0.71925801
H	   1.95450978	   0.22792412	  -1.97354346
H	   3.47129056	  -0.37237671	  -1.29474135
H	   2.05698426	  -1.44303905	  -1.41951006
9

O	  -0.52532979	  -0.05097108	  -0.31451686
H	  -0.94200663	   0.74790163	   0.01125282
H	   0.40369652	   0.05978598	  -0.07356837
O	   1.96921305	   0.04809526	   0.04544655
C	   2.43421811	  -0.42353467	  -1.21671256
H	   2.33719586	  -0.52398214	   0.72297486
H	   2.00340101	   0.22755902	  -1.96982661
H	   3.52018179	  -0.37274181	  -1.29102450
H	   2.10587549	  -1.44340415	  -1.41579321
9

O	  -0.52532979	  -0.05097108	  -0.31451686
H	  -0.94200663	   0.74790163	   0.01125282
H	   0.40369652	   0.05978598	  -0.07356837
O	   2.01810428	   0.04773016	   0.04916339
C	   2.48310934	  -0.42389977	  -1.21299572
H	   2.38608709	  -0.52434724	   0.72669171
H	   2.05229224	   0.22719392	  -1.96610976
H	   3.56907302	  -0.37310691	  -1.28730765
H	   2.15476672	  -1.44376925	  -1.41207636
9

O	  -0.52532979	  -0.05097108	  -0.31451686
H	  -0.94200663	   0.74790163	   0.01125282
H	   0.40369652	   0.05978598	  -0.07356837
O	   2.06699551	   0.04736505	   0.05288024
C	   2.53200058	  -0.42426487	  -1.20927887
H	   2.43497833	  -0.52471234	   0.73040856
H	   2.10118348	   0.22682882	  -1.96239292
H	   3.61796425	  -0.37347201	  -1.28359081
H	   2.20365796	  -1.44413436	  -1.40835952
9

O	  -0.52532979	  -0.05097108	  -0.31451686
H	  -0.94200663	   0.74790163	   0.01125282
H	   0.40369652	   0.05978598	  -0.07356837
O	   2.11588674	   0.04699995	   0.05659709
C	   2.58089181	  -0.42462997	  -1.20556203
H	   2.48386956	  -0.52507745	   0.73412540
H	   2.15007471	   0.22646372	  -1.95867607
H	   3.66685549	  -0.37383711	  -1.27987396
H	   2.25254919	  -1.44449946	  -1.40464267
9

O	  -0.52532979	  -0.05097108	  -0.31451686
H	  -0.94200663	   0.74790163	   0.01125282
H	   0.40369652	   0.05978598	  -0.07356837
O	   2.16477797	   0.04663485	   0.06031393
C	   2.62978304	  -0.42499507	  -1.20184518
H	   2.53276079	  -0.52544255	   0.73784225
H	   2.19896594	   0.22609862	  -1.95495922
H	   3.71574672	  -0.37420221	  -1.27615711
H	   2.30144042	  -1.44486456	  -1.40092582
9

O	  -0.52532979	  -0.05097108	  -0.31451686
H	  -0.94200663	   0.74790163	   0.01125282
H	   0.40369652	   0.05978598	  -0.07356837
O	   2.21366920	   0.04626975	   0.06403077
C	   2.67867427	  -0.42536017	  -1.19812834
H	   2.58165202	  -0.52580765	   0.74155910
H	   2.24785717	   0.22573352	  -1.95124237
H	   3.76463795	  -0.37456731	  -1.27244026
H	   2.35033165	  -1.44522966	  -1.39720897
9

O	  -0.52532979	  -0.05097108	  -0.31451686
H	  -0.94200663	   0.74790163	   0.01125282
H	   0.40369652	   0.05978598	  -0.07356837
O	   2.26256043	   0.04590465	   0.06774762
C	   2.72756551	  -0.42572527	  -1.19441149
H	   2.63054326	  -0.52617276	   0.74527595
H	   2.29674841	   0.22536842	  -1.94752553
H	   3.81352919	  -0.37493241	  -1.26872341
H	   2.39922289	  -1.44559477	  -1.39349213
9

O	  -0.52532979	  -0.05097108	  -0.31451686
H	  -0.94200663	   0.74790163	   0.01125282
H	   0.40369652	   0.05978598	  -0.07356837
O	   2.31145166	   0.04553954	   0.07146447
C	   2.77645674	  -0.42609037	  -1.19069464
H	   2.67943449	  -0.52653786	   0.74899279
H	   2.34563964	   0.22500332	  -1.94380868
H	   3.86242042	  -0.37529751	  -1.26500657
H	   2.44811412	  -1.44595987	  -1.38977528
9

O	  -0.52532979	  -0.05097108	  -0.31451686
H	  -0.94200663	   0.74790163	   0.01125282
H	   0.40369652	   0.05978598	  -0.07356837
O	   2.36034289	   0.04517444	   0.07518131
C	   2.82534797	  -0.42645547	  -1.18697780
H	   2.72832572	  -0.52690296	   0.75270964
H	   2.39453087	   0.22463822	  -1.94009183
H	   3.91131165	  -0.37566261	  -1.26128972
H	   2.49700535	  -1.44632497	  -1.38605843
9

O	  -0.52532979	  -0.05097108	  -0.31451686
H	  -0.94200663	   0.74790163	   0.01125282
H	   0.40369652	   0.05978598	  -0.07356837
O	   2.40923412	   0.04480934	   0.07889816
C	   2.87423920	  -0.42682057	  -1.18326095
H	   2.77721695	  -0.52726806	   0.75642649
H	   2.44342210	   0.22427312	  -1.93637498
H	   3.96020288	  -0.37602771	  -1.25757287
H	   2.54589658	  -1.44669007	  -1.38234158
9

O	  -0.52532979	  -0.05097108	  -0.31451686
H	  -0.94200663	   0.74790163	   0.01125282
H	   0.40369652	   0.05978598	  -0.07356837
O	   2.45812535	   0.04444423	   0.08261500
C	   2.92313044	  -0.42718567	  -1.17954411
H	   2.82610819	  -0.52763317	   0.76014333
H	   2.49231334	   0.22390802	  -1.93265814
H	   4.00909412	  -0.37639281	  -1.25385602
H	   2.59478782	  -1.44705518	  -1.37862474
9

O	  -0.52532979	  -0.05097108	  -0.31451686
H	  -0.94200663	   0.74790163	   0.01125282
H	   0.40369652	   0.05978598	  -0.07356837
O	   2.50701658	   0.04407913	   0.08633185
C	   2.97202167	  -0.42755077	  -1.17582726
H	   2.87499942	  -0.52799827	   0.76386018
H	   2.54120457	   0.22354292	  -1.92894129
H	   4.05798535	  -0.37675791	  -1.25013918
H	   2.64367905	  -1.44742028	  -1.37490789
9

O	  -0.52532979	  -0.05097108	  -0.31451686
H	  -0.94200663	   0.74790163	   0.01125282
H	   0.40369652	   0.05978598	  -0.07356837
O	   2.55590781	   0.04371403	   0.09004869
C	   3.02091290	  -0.42791587	  -1.17211042
H	   2.92389065	  -0.52836337	   0.76757703
H	   2.59009580	   0.22317782	  -1.92522444
H	   4.10687658	  -0.37712301	  -1.24642233
H	   2.69257028	  -1.44778538	  -1.37119104
9

O	  -0.52532979	  -0.05097108	  -0.31451686
H	  -0.94200663	   0.74790163	   0.01125282
H	   0.40369652	   0.05978598	  -0.07356837
O	   2.60479904	   0.04334893	   0.09376554
C	   3.06980413	  -0.42828097	  -1.16839357
H	   2.97278188	  -0.52872847	   0.77129388
H	   2.63898703	   0.22281272	  -1.92150759
H	   4.15576781	  -0.37748811	  -1.24270548
H	   2.74146151	  -1.44815048	  -1.36747419
9

O	  -0.52532979	  -0.05097108	  -0.31451686
H	  -0.94200663	   0.74790163	   0.01125282
H	   0.40369652	   0.05978598	  -0.07356837
O	   2.65369027	   0.04298383	   0.09748238
C	   3.11869537	  -0.42864607	  -1.16467673
H	   3.02167312	  -0.52909358	   0.77501072
H	   2.68787827	   0.22244762	  -1.91779075
H	   4.20465905	  -0.37785321	  -1.23898863
H	   2.79035275	  -1.44851558	  -1.36375735
9

O	  -0.52532979	  -0.05097108	  -0.31451686
H	  -0.94200663	   0.74790163	   0.01125282
H	   0.40369652	   0.05978598	  -0.07356837
O	   2.70258150	   0.04261872	   0.10119923
C	   3.16758660	  -0.42901117	  -1.16095988
H	   3.07056435	  -0.52945868	   0.77872757
H	   2.73676950	   0.22208252	  -1.91407390
H	   4.25355028	  -0.37821831	  -1.23527179
H	   2.83924398	  -1.44888069	  -1.36004050
9

O	  -0.52532979	  -0.05097108	  -0.31451686
H	  -0.94200663	   0.74790163	   0.01125282
H	   0.40369652	   0.05978598	  -0.07356837
O	   2.75147273	   0.04225362	   0.10491607
C	   3.21647783	  -0.42937627	  -1.15724304
H	   3.11945558	  -0.52982378	   0.78244442
H	   2.78566073	   0.22171742	  -1.91035705
H	   4.30244151	  -0.37858341	  -1.23155494
H	   2.88813521	  -1.44924579	  -1.35632365
9

O	  -0.52532979	  -0.05097108	  -0.31451686
H	  -0.94200663	   0.74790163	   0.01125282
H	   0.40369652	   0.05978598	  -0.07356837
O	   2.80036396	   0.04188852	   0.10863292
C	   3.26536906	  -0.42974137	  -1.15352619
H	   3.16834681	  -0.53018888	   0.78616127
H	   2.83455196	   0.22135232	  -1.90664020
H	   4.35133274	  -0.37894851	  -1.22783809
H	   2.93702644	  -1.44961089	  -1.35260680
9

O	  -0.52532979	  -0.05097108	  -0.31451686
H	  -0.94200663	   0.74790163	   0.01125282
H	   0.40369652	   0.05978598	  -0.07356837
O	   2.84925519	   0.04152342	   0.11234976
C	   3.31426030	  -0.43010647	  -1.14980935
H	   3.21723805	  -0.53055399	   0.78987811
H	   2.88344320	   0.22098722	  -1.90292335
H	   4.40022398	  -0.37931361	  -1.22412124
H	   2.98591768	  -1.44997599	  -1.34888995
9

O	  -0.52532979	  -0.05097108	  -0.31451686
H	  -0.94200663	   0.74790163	   0.01125282
H	   0.40369652	   0.05978598	  -0.07356837
O	   2.89814642	   0.04115831	   0.11606661
C	   3.36315153	  -0.43047157	  -1.14609250
H	   3.26612928	  -0.53091909	   0.79359496
H	   2.93233443	   0.22062212	  -1.89920651
H	   4.44911521	  -0.37967871	  -1.22040440
H	   3.03480891	  -1.45034110	  -1.34517311
9

O	  -0.52532979	  -0.05097108	  -0.31451686
H	  -0.94200663	   0.74790163	   0.01125282
H	   0.40369652	   0.05978598	  -0.07356837
O	   2.94703765	   0.04079321	   0.11978345
C	   3.41204276	  -0.43083667	  -1.14237566
H	   3.31502051	  -0.53128419	   0.79731181
H	   2.98122566	   0.22025702	  -1.89548966
H	   4.49800644	  -0.38004381	  -1.21668755
H	   3.08370014	  -1.45070620	  -1.34145626
9

O	  -0.52532979	  -0.05097108	  -0.31451686
H	  -0.94200663	   0.74790163	   0.01125282
H	   0.40369652	   0.05978598	  -0.07356837
O	   2.99592888	   0.04042811	   0.12350030
C	   3.46093399	  -0.43120177	  -1.13865881
H	   3.36391174	  -0.53164929	   0.80102866
H	   3.03011689	   0.21989192	  -1.89177281
H	   4.54689767	  -0.38040891	  -1.21297070
H	   3.13259137	  -1.45107130	  -1.33773941
9

O	  -0.52532979	  -0.05097108	  -0.31451686
H	  -0.94200663	   0.74790163	   0.01125282
H	   0.40369652	   0.05978598	  -0.07356837
O	   3.04482011	   0.04006301	   0.12721714
C	   3.50982523	  -0.43156687	  -1.13494197
H	   3.41280297	  -0.53201440	   0.80474550
H	   3.07900813	   0.21952682	  -1.88805596
H	   4.59578891	  -0.38077401	  -1.20925385
H	   3.18148260	  -1.45143640	  -1.33402256
9

O	  -0.52532979	  -0.05097108	  -0.31451686
H	  -0.94200663	   0.74790163	   0.01125282
H	   0.40369652	   0.05978598	  -0.07356837
O	   3.09371134	   0.03969790	   0.13093399
C	   3.55871646	  -0.43193197	  -1.13122512
H	   3.46169421	  -0.53237950	   0.80846235
H	   3.12789936	   0.21916172	  -1.88433912
H	   4.64468014	  -0.38113911	  -1.20553701
H	   3.23037384	  -1.45180151	  -1.33030572
9

O	  -0.52532979	  -0.05097108	  -0.31451686
H	  -0.94200663	   0.74790163	   0.01125282
H	   0.40369652	   0.05978598	  -0.07356837
O	   3.14260257	   0.03933280	   0.13465083
C	   3.60760769	  -0.43229707	  -1.12750828
H	   3.51058544	  -0.53274460	   0.81217920
H	   3.17679059	   0.21879662	  -1.88062227
H	   4.69357137	  -0.38150421	  -1.20182016
H	   3.27926507	  -1.45216661	  -1.32658887
9

O	  -0.52532979	  -0.05097108	  -0.31451686
H	  -0.94200663	   0.74790163	   0.01125282
H	   0.40369652	   0.05978598	  -0.07356837
O	   3.19149380	   0.03896770	   0.13836768
C	   3.65649892	  -0.43266217	  -1.12379143
H	   3.55947667	  -0.53310970	   0.81589605
H	   3.22568182	   0.21843152	  -1.87690542
H	   4.74246260	  -0.38186931	  -1.19810331
H	   3.32815630	  -1.45253171	  -1.32287202
9

O	  -0.52532979	  -0.05097108	  -0.31451686
H	  -0.94200663	   0.74790163	   0.01125282
H	   0.40369652	   0.05978598	  -0.07356837
O	   3.24038503	   0.03860260	   0.14208452
C	   3.70539016	  -0.43302727	  -1.12007459
H	   3.60836791	  -0.53347481	   0.81961289
H	   3.27457306	   0.21806642	  -1.87318857
H	   4.79135384	  -0.38223441	  -1.19438646
H	   3.37704753	  -1.45289681	  -1.31915517
9

O	  -0.52532979	  -0.05097108	  -0.31451686
H	  -0.94200663	   0.74790163	   0.01125282
H	   0.40369652	   0.05978598	  -0.07356837
O	   3.28927626	   0.03823749	   0.14580137
C	   3.75428139	  -0.43339237	  -1.11635774
H	   3.65725914	  -0.53383991	   0.82332974
H	   3.32346429	   0.21770132	  -1.86947173
H	   4.84024507	  -0.38259951	  -1.19066962
H	   3.42593877	  -1.45326192	  -1.31543833
9

O	  -0.52532979	  -0.05097108	  -0.31451686
H	  -0.94200663	   0.74790163	   0.01125282
H	   0.40369652	   0.05978598	  -0.07356837
O	   3.33816749	   0.03787239	   0.14951821
C	   3.80317262	  -0.43375747	  -1.11264090
H	   3.70615037	  -0.53420501	   0.82704659
H	   3.37235552	   0.21733622	  -1.86575488
H	   4.88913630	  -0.38296461	  -1.18695277
H	   3.47483000	  -1.45362702	  -1.31172148
9

O	  -0.52532979	  -0.05097108	  -0.31451686
H	  -0.94200663	   0.74790163	   0.01125282
H	   0.40369652	   0.05978598	  -0.07356837
O	   3.38705872	   0.03750729	   0.15323506
C	   3.85206385	  -0.43412257	  -1.10892405
H	   3.75504160	  -0.53457011	   0.83076344
H	   3.42124675	   0.21697112	  -1.86203803
H	   4.93802753	  -0.38332971	  -1.18323592
H	   3.52372123	  -1.45399212	  -1.30800463
9

O	  -0.52532979	  -0.05097108	  -0.31451686
H	  -0.94200663	   0.74790163	   0.01125282
H	   0.40369652	   0.05978598	  -0.07356837
O	   3.43594995	   0.03714219	   0.15695190
C	   3.90095509	  -0.43448767	  -1.10520721
H	   3.80393283	  -0.53493522	   0.83448028
H	   3.47013799	   0.21660602	  -1.85832118
H	   4.98691877	  -0.38369481	  -1.17951907
H	   3.57261246	  -1.45435722	  -1.30428778
9

O	  -0.52532979	  -0.05097108	  -0.31451686
H	  -0.94200663	   0.74790163	   0.01125282
H	   0.40369652	   0.05978598	  -0.07356837
O	   3.48484118	   0.03677708	   0.16066875
C	   3.94984632	  -0.43485277	  -1.10149036
H	   3.85282407	  -0.53530032	   0.83819713
H	   3.51902922	   0.21624092	  -1.85460434
H	   5.03581000	  -0.38405991	  -1.17580223
H	   3.62150370	  -1.45472233	  -1.30057094
9

O	  -0.52532979	  -0.05097108	  -0.31451686
H	  -0.94200663	   0.74790163	   0.01125282
H	   0.40369652	   0.05978598	  -0.07356837
O	   3.53373241	   0.03641198	   0.16438559
C	   3.99873755	  -0.43521787	  -1.09777352
H	   3.90171530	  -0.53566542	   0.84191398
H	   3.56792045	   0.21587582	  -1.85088749
H	   5.08470123	  -0.38442501	  -1.17208538
H	   3.67039493	  -1.45508743	  -1.29685409
9

O	  -0.52532979	  -0.05097108	  -0.31451686
H	  -0.94200663	   0.74790163	   0.01125282
H	   0.40369652	   0.05978598	  -0.07356837
O	   3.58262364	   0.03604688	   0.16810244
C	   4.04762878	  -0.43558297	  -1.09405667
H	   3.95060653	  -0.53603052	   0.84563083
H	   3.61681168	   0.21551072	  -1.84717064
H	   5.13359246	  -0.38479011	  -1.16836853
H	   3.71928616	  -1.45545253	  -1.29313724
9

O	  -0.52532979	  -0.05097108	  -0.31451686
H	  -0.94200663	   0.74790163	   0.01125282
H	   0.40369652	   0.05978598	  -0.07356837
O	   3.63151487	   0.03568178	   0.17181928
C	   4.09652002	  -0.43594807	  -1.09033983
H	   3.99949777	  -0.53639563	   0.84934767
H	   3.66570292	   0.21514562	  -1.84345379
H	   5.18248370	  -0.38515521	  -1.16465168
H	   3.76817739	  -1.45581763	  -1.28942039
9

O	  -0.52532979	  -0.05097108	  -0.31451686
H	  -0.94200663	   0.74790163	   0.01125282
H	   0.40369652	   0.05978598	  -0.07356837
O	   3.68040610	   0.03531667	   0.17553613
C	   4.14541125	  -0.43631317	  -1.08662298
H	   4.04838900	  -0.53676073	   0.85306452
H	   3.71459415	   0.21478052	  -1.83973695
H	   5.23137493	  -0.38552031	  -1.16093484
H	   3.81706863	  -1.45618274	  -1.28570355
9

O	  -0.52532979	  -0.05097108	  -0.31451686
H	  -0.94200663	   0.74790163	   0.01125282
H	   0.40369652	   0.05978598	  -0.07356837
O	   3.72929733	   0.03495157	   0.17925297
C	   4.19430248	  -0.43667827	  -1.08290614
H	   4.09728023	  -0.53712583	   0.85678137
H	   3.76348538	   0.21441542	  -1.83602010
H	   5.28026616	  -0.38588541	  -1.15721799
H	   3.86595986	  -1.45654784	  -1.28198670
9

O	  -0.52532979	  -0.05097108	  -0.31451686
H	  -0.94200663	   0.74790163	   0.01125282
H	   0.40369652	   0.05978598	  -0.07356837
O	   3.77818856	   0.03458647	   0.18296982
C	   4.24319371	  -0.43704337	  -1.07918929
H	   4.14617146	  -0.53749093	   0.86049822
H	   3.81237661	   0.21405032	  -1.83230325
H	   5.32915739	  -0.38625051	  -1.15350114
H	   3.91485109	  -1.45691294	  -1.27826985
9

O	  -0.52532979	  -0.05097108	  -0.31451686
H	  -0.94200663	   0.74790163	   0.01125282
H	   0.40369652	   0.05978598	  -0.07356837
O	   3.82707979	   0.03422137	   0.18668666
C	   4.29208495	  -0.43740847	  -1.07547245
H	   4.19506269	  -0.53785604	   0.86421506
H	   3.86126785	   0.21368522	  -1.82858640
H	   5.37804863	  -0.38661561	  -1.14978429
H	   3.96374232	  -1.45727804	  -1.27455300
9

O	  -0.52532979	  -0.05097108	  -0.31451686
H	  -0.94200663	   0.74790163	   0.01125282
H	   0.40369652	   0.05978598	  -0.07356837
O	   3.87597102	   0.03385626	   0.19040351
C	   4.34097618	  -0.43777357	  -1.07175560
H	   4.24395393	  -0.53822114	   0.86793191
H	   3.91015908	   0.21332012	  -1.82486956
H	   5.42693986	  -0.38698071	  -1.14606745
H	   4.01263356	  -1.45764315	  -1.27083616
9

O	  -0.52532979	  -0.05097108	  -0.31451686
H	  -0.94200663	   0.74790163	   0.01125282
H	   0.40369652	   0.05978598	  -0.07356837
O	   3.92486225	   0.03349116	   0.19412035
C	   4.38986741	  -0.43813867	  -1.06803876
H	   4.29284516	  -0.53858624	   0.87164876
H	   3.95905031	   0.21295502	  -1.82115271
H	   5.47583109	  -0.38734581	  -1.14235060
H	   4.06152479	  -1.45800825	  -1.26711931
9

O	  -0.52532979	  -0.05097108	  -0.31451686
H	  -0.94200663	   0.74790163	   0.01125282
H	   0.40369652	   0.05978598	  -0.07356837
O	   3.97375348	   0.03312606	   0.19783720
C	   4.43875864	  -0.43850377	  -1.06432191
H	   4.34173639	  -0.53895134	   0.87536561
H	   4.00794154	   0.21258992	  -1.81743586
H	   5.52472232	  -0.38771091	  -1.13863375
H	   4.11041602	  -1.45837335	  -1.26340246
9

O	  -0.52532979	  -0.05097108	  -0.31451686
H	  -0.94200663	   0.74790163	   0.01125282
H	   0.40369652	   0.05978598	  -0.07356837
O	   4.02264471	   0.03276096	   0.20155404
C	   4.48764988	  -0.43886887	  -1.06060507
H	   4.39062762	  -0.53931645	   0.87908245
H	   4.05683278	   0.21222482	  -1.81371901
H	   5.57361356	  -0.38807601	  -1.13491690
H	   4.15930725	  -1.45873845	  -1.25968561
9

O	  -0.52532979	  -0.05097108	  -0.31451686
H	  -0.94200663	   0.74790163	   0.01125282
H	   0.40369652	   0.05978598	  -0.07356837
O	   4.07153594	   0.03239585	   0.20527089
C	   4.53654111	  -0.43923397	  -1.05688822
H	   4.43951886	  -0.53968155	   0.88279930
H	   4.10572401	   0.21185972	  -1.81000217
H	   5.62250479	  -0.38844111	  -1.13120006
H	   4.20819849	  -1.45910356	  -1.25596877
9

O	  -0.52532979	  -0.05097108	  -0.31451686
H	  -0.94200663	   0.74790163	   0.01125282
H	   0.40369652	   0.05978598	  -0.07356837
O	   4.12042717	   0.03203075	   0.20898773
C	   4.58543234	  -0.43959907	  -1.05317138
H	   4.48841009	  -0.54004665	   0.88651615
H	   4.15461524	   0.21149462	  -1.80628532
H	   5.67139602	  -0.38880621	  -1.12748321
H	   4.25708972	  -1.45946866	  -1.25225192
9

O	  -0.52532979	  -0.05097108	  -0.31451686
H	  -0.94200663	   0.74790163	   0.01125282
H	   0.40369652	   0.05978598	  -0.07356837
O	   4.16931840	   0.03166565	   0.21270458
C	   4.63432357	  -0.43996417	  -1.04945453
H	   4.53730132	  -0.54041175	   0.89023300
H	   4.20350647	   0.21112952	  -1.80256847
H	   5.72028725	  -0.38917131	  -1.12376636
H	   4.30598095	  -1.45983376	  -1.24853507
9

O	  -0.52532979	  -0.05097108	  -0.31451686
H	  -0.94200663	   0.74790163	   0.01125282
H	   0.40369652	   0.05978598	  -0.07356837
O	   4.21820963	   0.03130055	   0.21642142
C	   4.68321481	  -0.44032927	  -1.04573769
H	   4.58619256	  -0.54077686	   0.89394984
H	   4.25239771	   0.21076442	  -1.79885162
H	   5.76917849	  -0.38953641	  -1.12004951
H	   4.35487218	  -1.46019886	  -1.24481822
9

O	  -0.52532979	  -0.05097108	  -0.31451686
H	  -0.94200663	   0.74790163	   0.01125282
H	   0.40369652	   0.05978598	  -0.07356837
O	   4.26710086	   0.03093544	   0.22013827
C	   4.73210604	  -0.44069437	  -1.04202084
H	   4.63508379	  -0.54114196	   0.89766669
H	   4.30128894	   0.21039932	  -1.79513478
H	   5.81806972	  -0.38990151	  -1.11633267
H	   4.40376342	  -1.46056397	  -1.24110138
9

O	  -0.52532979	  -0.05097108	  -0.31451686
H	  -0.94200663	   0.74790163	   0.01125282
H	   0.40369652	   0.05978598	  -0.07356837
O	   4.31599209	   0.03057034	   0.22385511
C	   4.78099727	  -0.44105947	  -1.03830400
H	   4.68397502	  -0.54150706	   0.90138354
H	   4.35018017	   0.21003422	  -1.79141793
H	   5.86696095	  -0.39026661	  -1.11261582
H	   4.45265465	  -1.46092907	  -1.23738453
9

O	  -0.52532979	  -0.05097108	  -0.31451686
H	  -0.94200663	   0.74790163	   0.01125282
H	   0.40369652	   0.05978598	  -0.07356837
O	   4.36488332	   0.03020524	   0.22757196
C	   4.82988850	  -0.44142457	  -1.03458715
H	   4.73286625	  -0.54187216	   0.90510039
H	   4.39907140	   0.20966912	  -1.78770108
H	   5.91585218	  -0.39063171	  -1.10889897
H	   4.50154588	  -1.46129417	  -1.23366768
9

O	  -0.52532979	  -0.05097108	  -0.31451686
H	  -0.94200663	   0.74790163	   0.01125282
H	   0.40369652	   0.05978598	  -0.07356837
O	   4.41377455	   0.02984014	   0.23128880
C	   4.87877974	  -0.44178967	  -1.03087031
H	   4.78175748	  -0.54223727	   0.90881723
H	   4.44796264	   0.20930402	  -1.78398423
H	   5.96474342	  -0.39099681	  -1.10518212
H	   4.55043711	  -1.46165927	  -1.22995083
9

O	  -0.52532979	  -0.05097108	  -0.31451686
H	  -0.94200663	   0.74790163	   0.01125282
H	   0.40369652	   0.05978598	  -0.07356837
O	   4.46266578	   0.02947503	   0.23500565
C	   4.92767097	  -0.44215477	  -1.02715346
H	   4.83064872	  -0.54260237	   0.91253408
H	   4.49685387	   0.20893892	  -1.78026739
H	   6.01363465	  -0.39136191	  -1.10146528
H	   4.59932835	  -1.46202438	  -1.22623399
9

O	  -0.52532979	  -0.05097108	  -0.31451686
H	  -0.94200663	   0.74790163	   0.01125282
H	   0.40369652	   0.05978598	  -0.07356837
O	   4.51155701	   0.02910993	   0.23872249
C	   4.97656220	  -0.44251987	  -1.02343662
H	   4.87953995	  -0.54296747	   0.91625093
H	   4.54574510	   0.20857382	  -1.77655054
H	   6.06252588	  -0.39172701	  -1.09774843
H	   4.64821958	  -1.46238948	  -1.22251714
9

O	  -0.52532979	  -0.05097108	  -0.31451686
H	  -0.94200663	   0.74790163	   0.01125282
H	   0.40369652	   0.05978598	  -0.07356837
O	   4.56044824	   0.02874483	   0.24243934
C	   5.02545343	  -0.44288497	  -1.01971977
H	   4.92843118	  -0.54333257	   0.91996778
H	   4.59463633	   0.20820872	  -1.77283369
H	   6.11141711	  -0.39209211	  -1.09403158
H	   4.69711081	  -1.46275458	  -1.21880029
9

O	  -0.52532979	  -0.05097108	  -0.31451686
H	  -0.94200663	   0.74790163	   0.01125282
H	   0.40369652	   0.05978598	  -0.07356837
O	   4.60933947	   0.02837973	   0.24615618
C	   5.07434467	  -0.44325007	  -1.01600293
H	   4.97732241	  -0.54369768	   0.92368462
H	   4.64352757	   0.20784362	  -1.76911684
H	   6.16030835	  -0.39245721	  -1.09031473
H	   4.74600204	  -1.46311968	  -1.21508344
9

O	  -0.52532979	  -0.05097108	  -0.31451686
H	  -0.94200663	   0.74790163	   0.01125282
H	   0.40369652	   0.05978598	  -0.07356837
O	   4.65823070	   0.02801462	   0.24987303
C	   5.12323590	  -0.44361517	  -1.01228608
H	   5.02621365	  -0.54406278	   0.92740147
H	   4.69241880	   0.20747852	  -1.76540000
H	   6.20919958	  -0.39282231	  -1.08659789
H	   4.79489328	  -1.46348479	  -1.21136660
9

O	  -0.52532979	  -0.05097108	  -0.31451686
H	  -0.94200663	   0.74790163	   0.01125282
H	   0.40369652	   0.05978598	  -0.07356837
O	   4.70712193	   0.02764952	   0.25358987
C	   5.17212713	  -0.44398027	  -1.00856924
H	   5.07510488	  -0.54442788	   0.93111832
H	   4.74131003	   0.20711342	  -1.76168315
H	   6.25809081	  -0.39318741	  -1.08288104
H	   4.84378451	  -1.46384989	  -1.20764975
9

O	  -0.52532979	  -0.05097108	  -0.31451686
H	  -0.94200663	   0.74790163	   0.01125282
H	   0.40369652	   0.05978598	  -0.07356837
O	   4.75601316	   0.02728442	   0.25730672
C	   5.22101836	  -0.44434537	  -1.00485239
H	   5.12399611	  -0.54479298	   0.93483517
H	   4.79020126	   0.20674832	  -1.75796630
H	   6.30698204	  -0.39355251	  -1.07916419
H	   4.89267574	  -1.46421499	  -1.20393290
9

O	  -0.52532979	  -0.05097108	  -0.31451686
H	  -0.94200663	   0.74790163	   0.01125282
H	   0.40369652	   0.05978598	  -0.07356837
O	   4.80490439	   0.02691932	   0.26102356
C	   5.26990960	  -0.44471047	  -1.00113555
H	   5.17288734	  -0.54515809	   0.93855201
H	   4.83909250	   0.20638322	  -1.75424945
H	   6.35587328	  -0.39391761	  -1.07544734
H	   4.94156697	  -1.46458009	  -1.20021605
9

O	  -0.52532979	  -0.05097108	  -0.31451686
H	  -0.94200663	   0.74790163	   0.01125282
H	   0.40369652	   0.05978598	  -0.07356837
O	   4.85379562	   0.02655421	   0.26474041
C	   5.31880083	  -0.44507557	  -0.99741870
H	   5.22177858	  -0.54552319	   0.94226886
H	   4.88798373	   0.20601812	  -1.75053261
H	   6.40476451	  -0.39428271	  -1.07173050
H	   4.99045821	  -1.46494520	  -1.19649921
9

O	  -0.52532979	  -0.05097108	  -0.31451686
H	  -0.94200663	   0.74790163	   0.01125282
H	   0.40369652	   0.05978598	  -0.07356837
O	   4.90268685	   0.02618911	   0.26845725
C	   5.36769206	  -0.44544067	  -0.99370186
H	   5.27066981	  -0.54588829	   0.94598571
H	   4.93687496	   0.20565302	  -1.74681576
H	   6.45365574	  -0.39464781	  -1.06801365
H	   5.03934944	  -1.46531030	  -1.19278236
9

O	  -0.52532979	  -0.05097108	  -0.31451686
H	  -0.94200663	   0.74790163	   0.01125282
H	   0.40369652	   0.05978598	  -0.07356837
O	   4.95157808	   0.02582401	   0.27217410
C	   5.41658329	  -0.44580577	  -0.98998501
H	   5.31956104	  -0.54625339	   0.94970256
H	   4.98576619	   0.20528792	  -1.74309891
H	   6.50254697	  -0.39501291	  -1.06429680
H	   5.08824067	  -1.46567540	  -1.18906551
9

O	  -0.52532979	  -0.05097108	  -0.31451686
H	  -0.94200663	   0.74790163	   0.01125282
H	   0.40369652	   0.05978598	  -0.07356837
O	   5.00046931	   0.02545891	   0.27589094
C	   5.46547453	  -0.44617087	  -0.98626817
H	   5.36845227	  -0.54661850	   0.95341940
H	   5.03465743	   0.20492282	  -1.73938206
H	   6.55143821	  -0.39537801	  -1.06057995
H	   5.13713190	  -1.46604050	  -1.18534866
9

O	  -0.52532979	  -0.05097108	  -0.31451686
H	  -0.94200663	   0.74790163	   0.01125282
H	   0.40369652	   0.05978598	  -0.07356837
O	   5.04936054	   0.02509380	   0.27960779
C	   5.51436576	  -0.44653597	  -0.98255132
H	   5.41734351	  -0.54698360	   0.95713625
H	   5.08354866	   0.20455772	  -1.73566522
H	   6.60032944	  -0.39574311	  -1.05686311
H	   5.18602314	  -1.46640561	  -1.18163182
9

O	  -0.52532979	  -0.05097108	  -0.31451686
H	  -0.94200663	   0.74790163	   0.01125282
H	   0.40369652	   0.05978598	  -0.07356837
O	   5.09825177	   0.02472870	   0.28332463
C	   5.56325699	  -0.44690107	  -0.97883448
H	   5.46623474	  -0.54734870	   0.96085310
H	   5.13243989	   0.20419262	  -1.73194837
H	   6.64922067	  -0.39610821	  -1.05314626
H	   5.23491437	  -1.46677071	  -1.17791497
9

O	  -0.52532979	  -0.05097108	  -0.31451686
H	  -0.94200663	   0.74790163	   0.01125282
H	   0.40369652	   0.05978598	  -0.07356837
O	   5.14714300	   0.02436360	   0.28704148
C	   5.61214822	  -0.44726617	  -0.97511763
H	   5.51512597	  -0.54771380	   0.96456995
H	   5.18133112	   0.20382752	  -1.72823152
H	   6.69811190	  -0.39647331	  -1.04942941
H	   5.28380560	  -1.46713581	  -1.17419812
9

O	  -0.52532979	  -0.05097108	  -0.31451686
H	  -0.94200663	   0.74790163	   0.01125282
H	   0.40369652	   0.05978598	  -0.07356837
O	   5.19603423	   0.02399850	   0.29075832
C	   5.66103946	  -0.44763127	  -0.97140079
H	   5.56401720	  -0.54807891	   0.96828679
H	   5.23022236	   0.20346242	  -1.72451467
H	   6.74700314	  -0.39683841	  -1.04571256
H	   5.33269683	  -1.46750091	  -1.17048127
9

O	  -0.52532979	  -0.05097108	  -0.31451686
H	  -0.94200663	   0.74790163	   0.01125282
H	   0.40369652	   0.05978598	  -0.07356837
O	   5.24492546	   0.02363339	   0.29447517
C	   5.70993069	  -0.44799637	  -0.96768394
H	   5.61290844	  -0.54844401	   0.97200364
H	   5.27911359	   0.20309732	  -1.72079783
H	   6.79589437	  -0.39720351	  -1.04199572
H	   5.38158807	  -1.46786602	  -1.16676443
9

O	  -0.52532979	  -0.05097108	  -0.31451686
H	  -0.94200663	   0.74790163	   0.01125282
H	   0.40369652	   0.05978598	  -0.07356837
O	   5.29381669	   0.02326829	   0.29819201
C	   5.75882192	  -0.44836147	  -0.96396710
H	   5.66179967	  -0.54880911	   0.97572049
H	   5.32800482	   0.20273222	  -1.71708098
H	   6.84478560	  -0.39756861	  -1.03827887
H	   5.43047930	  -1.46823112	  -1.16304758
9

O	  -0.52532979	  -0.05097108	  -0.31451686
H	  -0.94200663	   0.74790163	   0.01125282
H	   0.40369652	   0.05978598	  -0.07356837
O	   5.34270792	   0.02290319	   0.30190886
C	   5.80771315	  -0.44872657	  -0.96025025
H	   5.71069090	  -0.54917421	   0.97943734
H	   5.37689605	   0.20236712	  -1.71336413
H	   6.89367683	  -0.39793371	  -1.03456202
H	   5.47937053	  -1.46859622	  -1.15933073
9

O	  -0.52532979	  -0.05097108	  -0.31451686
H	  -0.94200663	   0.74790163	   0.01125282
H	   0.40369652	   0.05978598	  -0.07356837
O	   5.39159915	   0.02253809	   0.30562570
C	   5.85660439	  -0.44909167	  -0.95653341
H	   5.75958213	  -0.54953932	   0.98315418
H	   5.42578729	   0.20200202	  -1.70964728
H	   6.94256807	  -0.39829881	  -1.03084517
H	   5.52826176	  -1.46896132	  -1.15561388
9

O	  -0.52532979	  -0.05097108	  -0.31451686
H	  -0.94200663	   0.74790163	   0.01125282
H	   0.40369652	   0.05978598	  -0.07356837
O	   5.44049038	   0.02217298	   0.30934255
C	   5.90549562	  -0.44945677	  -0.95281656
H	   5.80847337	  -0.54990442	   0.98687103
H	   5.47467852	   0.20163692	  -1.70593044
H	   6.99145930	  -0.39866391	  -1.02712833
H	   5.57715300	  -1.46932643	  -1.15189704
9

O	  -0.52532979	  -0.05097108	  -0.31451686
H	  -0.94200663	   0.74790163	   0.01125282
H	   0.40369652	   0.05978598	  -0.07356837
O	   5.48938161	   0.02180788	   0.31305939
C	   5.95438685	  -0.44982187	  -0.94909972
H	   5.85736460	  -0.55026952	   0.99058788
H	   5.52356975	   0.20127182	  -1.70221359
H	   7.04035053	  -0.39902901	  -1.02341148
H	   5.62604423	  -1.46969153	  -1.14818019
9

O	  -0.52532979	  -0.05097108	  -0.31451686
H	  -0.94200663	   0.74790163	   0.01125282
H	   0.40369652	   0.05978598	  -0.07356837
O	   5.53827284	   0.02144278	   0.31677624
C	   6.00327808	  -0.45018697	  -0.94538287
H	   5.90625583	  -0.55063462	   0.99430473
H	   5.57246098	   0.20090672	  -1.69849674
H	   7.08924176	  -0.39939411	  -1.01969463
H	   5.67493546	  -1.47005663	  -1.14446334
9

O	  -0.52532979	  -0.05097108	  -0.31451686
H	  -0.94200663	   0.74790163	   0.01125282
H	   0.40369652	   0.05978598	  -0.07356837
O	   5.58716407	   0.02107768	   0.32049308
C	   6.05216932	  -0.45055207	  -0.94166603
H	   5.95514706	  -0.55099973	   0.99802157
H	   5.62135222	   0.20054162	  -1.69477989
H	   7.13813300	  -0.39975921	  -1.01597778
H	   5.72382669	  -1.47042173	  -1.14074649
9

O	  -0.52532979	  -0.05097108	  -0.31451686
H	  -0.94200663	   0.74790163	   0.01125282
H	   0.40369652	   0.05978598	  -0.07356837
O	   5.63605530	   0.02071257	   0.32420993
C	   6.10106055	  -0.45091717	  -0.93794918
H	   6.00403830	  -0.55136483	   1.00173842
H	   5.67024345	   0.20017652	  -1.69106305
H	   7.18702423	  -0.40012431	  -1.01226094
H	   5.77271793	  -1.47078684	  -1.13702965
9

O	  -0.52532979	  -0.05097108	  -0.31451686
H	  -0.94200663	   0.74790163	   0.01125282
H	   0.40369652	   0.05978598	  -0.07356837
O	   5.68494653	   0.02034747	   0.32792677
C	   6.14995178	  -0.45128227	  -0.93423234
H	   6.05292953	  -0.55172993	   1.00545527
H	   5.71913468	   0.19981142	  -1.68734620
H	   7.23591546	  -0.40048941	  -1.00854409
H	   5.82160916	  -1.47115194	  -1.13331280
9

O	  -0.52532979	  -0.05097108	  -0.31451686
H	  -0.94200663	   0.74790163	   0.01125282
H	   0.40369652	   0.05978598	  -0.07356837
O	   5.73383776	   0.01998237	   0.33164362
C	   6.19884301	  -0.45164737	  -0.93051549
H	   6.10182076	  -0.55209503	   1.00917212
H	   5.76802591	   0.19944632	  -1.68362935
H	   7.28480669	  -0.40085451	  -1.00482724
H	   5.87050039	  -1.47151704	  -1.12959595
9

O	  -0.52532979	  -0.05097108	  -0.31451686
H	  -0.94200663	   0.74790163	   0.01125282
H	   0.40369652	   0.05978598	  -0.07356837
O	   5.78272899	   0.01961727	   0.33536046
C	   6.24773425	  -0.45201247	  -0.92679865
H	   6.15071199	  -0.55246014	   1.01288896
H	   5.81691715	   0.19908122	  -1.67991250
H	   7.33369793	  -0.40121961	  -1.00111039
H	   5.91939162	  -1.47188214	  -1.12587910
9

O	  -0.52532979	  -0.05097108	  -0.31451686
H	  -0.94200663	   0.74790163	   0.01125282
H	   0.40369652	   0.05978598	  -0.07356837
O	   5.83162022	   0.01925216	   0.33907731
C	   6.29662548	  -0.45237757	  -0.92308180
H	   6.19960323	  -0.55282524	   1.01660581
H	   5.86580838	   0.19871612	  -1.67619566
H	   7.38258916	  -0.40158471	  -0.99739355
H	   5.96828286	  -1.47224725	  -1.12216226
9

O	  -0.52532979	  -0.05097108	  -0.31451686
H	  -0.94200663	   0.74790163	   0.01125282
H	   0.40369652	   0.05978598	  -0.07356837
O	   5.88051145	   0.01888706	   0.34279415
C	   6.34551671	  -0.45274267	  -0.91936496
H	   6.24849446	  -0.55319034	   1.02032266
H	   5.91469961	   0.19835102	  -1.67247881
H	   7.43148039	  -0.40194981	  -0.99367670
H	   6.01717409	  -1.47261235	  -1.11844541
9

O	  -0.52532979	  -0.05097108	  -0.31451686
H	  -0.94200663	   0.74790163	   0.01125282
H	   0.40369652	   0.05978598	  -0.07356837
O	   5.92940268	   0.01852196	   0.34651100
C	   6.39440794	  -0.45310777	  -0.91564811
H	   6.29738569	  -0.55355544	   1.02403951
H	   5.96359084	   0.19798592	  -1.66876196
H	   7.48037162	  -0.40231491	  -0.98995985
H	   6.06606532	  -1.47297745	  -1.11472856
9

O	  -0.52532979	  -0.05097108	  -0.31451686
H	  -0.94200663	   0.74790163	   0.01125282
H	   0.40369652	   0.05978598	  -0.07356837
O	   5.97829391	   0.01815686	   0.35022784
C	   6.44329918	  -0.45347287	  -0.91193127
H	   6.34627692	  -0.55392055	   1.02775635
H	   6.01248208	   0.19762082	  -1.66504511
H	   7.52926286	  -0.40268001	  -0.98624300
H	   6.11495655	  -1.47334255	  -1.11101171
9

O	  -0.52532979	  -0.05097108	  -0.31451686
H	  -0.94200663	   0.74790163	   0.01125282
H	   0.40369652	   0.05978598	  -0.07356837
O	   6.02718514	   0.01779175	   0.35394469
C	   6.49219041	  -0.45383797	  -0.90821442
H	   6.39516816	  -0.55428565	   1.03147320
H	   6.06137331	   0.19725572	  -1.66132827
H	   7.57815409	  -0.40304511	  -0.98252616
H	   6.16384779	  -1.47370766	  -1.10729487
9

O	  -0.52532979	  -0.05097108	  -0.31451686
H	  -0.94200663	   0.74790163	   0.01125282
H	   0.40369652	   0.05978598	  -0.07356837
O	   6.07607637	   0.01742665	   0.35766153
C	   6.54108164	  -0.45420307	  -0.90449758
H	   6.44405939	  -0.55465075	   1.03519005
H	   6.11026454	   0.19689062	  -1.65761142
H	   7.62704532	  -0.40341021	  -0.97880931
H	   6.21273902	  -1.47407276	  -1.10357802
9

O	  -0.52532979	  -0.05097108	  -0.31451686
H	  -0.94200663	   0.74790163	   0.01125282
H	   0.40369652	   0.05978598	  -0.07356837
O	   6.12496760	   0.01706155	   0.36137838
C	   6.58997287	  -0.45456817	  -0.90078073
H	   6.49295062	  -0.55501585	   1.03890690
H	   6.15915577	   0.19652552	  -1.65389457
H	   7.67593655	  -0.40377531	  -0.97509246
H	   6.26163025	  -1.47443786	  -1.09986117
9

O	  -0.52532979	  -0.05097108	  -0.31451686
H	  -0.94200663	   0.74790163	   0.01125282
H	   0.40369652	   0.05978598	  -0.07356837
O	   6.17385883	   0.01669645	   0.36509522
C	   6.63886411	  -0.45493327	  -0.89706389
H	   6.54184185	  -0.55538096	   1.04262374
H	   6.20804701	   0.19616042	  -1.65017772
H	   7.72482779	  -0.40414041	  -0.97137561
H	   6.31052148	  -1.47480296	  -1.09614432
9

O	  -0.52532979	  -0.05097108	  -0.31451686
H	  -0.94200663	   0.74790163	   0.01125282
H	   0.40369652	   0.05978598	  -0.07356837
O	   6.22275006	   0.01633134	   0.36881207
C	   6.68775534	  -0.45529837	  -0.89334704
H	   6.59073309	  -0.55574606	   1.04634059
H	   6.25693824	   0.19579532	  -1.64646088
H	   7.77371902	  -0.40450551	  -0.96765877
H	   6.35941272	  -1.47516807	  -1.09242748
9

O	  -0.52532979	  -0.05097108	  -0.31451686
H	  -0.94200663	   0.74790163	   0.01125282
H	   0.40369652	   0.05978598	  -0.07356837
O	   6.27164129	   0.01596624	   0.37252891
C	   6.73664657	  -0.45566347	  -0.88963020
H	   6.63962432	  -0.55611116	   1.05005744
H	   6.30582947	   0.19543022	  -1.64274403
H	   7.82261025	  -0.40487061	  -0.96394192
H	   6.40830395	  -1.47553317	  -1.08871063
9

O	  -0.52532979	  -0.05097108	  -0.31451686
H	  -0.94200663	   0.74790163	   0.01125282
H	   0.40369652	   0.05978598	  -0.07356837
O	   6.76055359	   0.01231522	   0.40969736
C	   7.22555890	  -0.45931447	  -0.85246175
H	   7.12853664	  -0.55976219	   1.08722591
H	   6.79474180	   0.19177922	  -1.60557555
H	   8.31152258	  -0.40852161	  -0.92677344
H	   6.89721627	  -1.47918419	  -1.05154215
9

O	  -0.52532979	  -0.05097108	  -0.31451686
H	  -0.94200663	   0.74790163	   0.01125282
H	   0.40369652	   0.05978598	  -0.07356837
O	   7.24946589	   0.00866419	   0.44686581
C	   7.71447122	  -0.46296547	  -0.81529330
H	   7.61744897	  -0.56341321	   1.12439439
H	   7.28365412	   0.18812822	  -1.56840708
H	   8.80043490	  -0.41217261	  -0.88960497
H	   7.38612860	  -1.48283522	  -1.01437368
9

O	  -0.52532979	  -0.05097108	  -0.31451686
H	  -0.94200663	   0.74790163	   0.01125282
H	   0.40369652	   0.05978598	  -0.07356837
O	   8.22729049	   0.00136214	   0.52120271
C	   8.69229587	  -0.47026747	  -0.74095640
H	   8.59527362	  -0.57071526	   1.19873134
H	   8.26147877	   0.18082622	  -1.49407013
H	   9.77825955	  -0.41947461	  -0.81526802
H	   8.36395325	  -1.49013727	  -0.94003673
9

O	  -0.52532979	  -0.05097108	  -0.31451686
H	  -0.94200663	   0.74790163	   0.01125282
H	   0.40369652	   0.05978598	  -0.07356837
O	  10.18293969	  -0.01324196	   0.66987651
C	  10.64794517	  -0.48487147	  -0.59228260
H	  10.55092292	  -0.58531936	   1.34740524
H	  10.21712807	   0.16622222	  -1.34539623
H	  11.73390885	  -0.43407861	  -0.66659412
H	  10.31960255	  -1.50474137	  -0.79136283
9

O	  -0.52532979	  -0.05097108	  -0.31451686
H	  -0.94200663	   0.74790163	   0.01125282
H	   0.40369652	   0.05978598	  -0.07356837
O	  19.96118569	  -0.08626246	   1.41324551
C	  20.42619167	  -0.55789147	   0.15108640
H	  20.32916942	  -0.65833986	   2.09077474
H	  19.99537457	   0.09320222	  -0.60202673
H	  21.51215535	  -0.50709861	   0.07677538
H	  20.09784905	  -1.57776187	  -0.04799333
9

O	  -0.52532979	  -0.05097108	  -0.31451686
H	  -0.94200663	   0.74790163	   0.01125282
H	   0.40369652	   0.05978598	  -0.07356837
O	  98.18715369	  -0.67042646	   7.36019751
C	  98.65216367	  -1.14205147	   6.09803840
H	  98.55514142	  -1.24250386	   8.03773074
H	  98.22134657	  -0.49095778	   5.34492927
H	  99.73812735	  -1.09125861	   6.02373138
H	  98.32382105	  -2.16192587	   5.89896267
9

O	  -0.52532979	  -0.05097108	  -0.31451686
H	  -0.94200663	   0.74790163	   0.01125282
H	   0.40369652	   0.05978598	  -0.07356837
O	 195.96961369	  -1.40063146	  14.79388751
C	 196.43462867	  -1.87225147	  13.53172840
H	 196.33760642	  -1.97270886	  15.47142574
H	 196.00381157	  -1.22115778	  12.77862427
H	 197.52059235	  -1.82145861	  13.45742638
H	 196.10628605	  -2.89213087	  13.33265767