12

C	   0.40877989	   1.05102502	   0.37553605
C	   1.01916788	  -0.19976963	   0.28905343
C	   0.24172263	  -1.35688270	   0.29668995
C	  -1.14617971	  -1.26425757	   0.39390198
C	  -1.75727780	  -0.01396023	   0.48295173
C	  -0.97968602	   1.14420653	   0.47228370
H	   1.01193875	   1.94854570	   0.36807788
H	   2.09557130	  -0.27183333	   0.21719099
H	   0.71521633	  -2.32658869	   0.22807218
H	  -1.74918186	  -2.16192663	   0.39940980
H	  -2.83351378	   0.05824368	   0.55903918
H	  -1.45405142	   2.11400088	   0.53713589