12

N	  -0.05545357	  -0.94799090	   0.01001028
C	  -1.31395971	  -0.33514498	  -0.06458622
O	  -2.32889664	  -1.00790087	  -0.12310273
C	  -1.24835877	   1.11605191	  -0.06650860
C	  -0.05308010	   1.73142748	   0.03419541
N	   1.11592628	   1.02759107	   0.13516893
C	   1.17534700	  -0.35380470	   0.17616616
O	   2.21463146	  -0.96646542	   0.33517250
H	  -0.05731609	  -1.95771330	   0.05505287
H	  -2.16434937	   1.67533298	  -0.14710244
H	   0.04811054	   2.80642986	   0.04341968
H	   1.99665515	   1.49727976	   0.26162029